<?xml version="1.0" encoding="UTF-8"?>

<!-- generated on 2025-01-09 18:02:31 by Eclipse SUMO GUI Version 1.13.0
<configuration xmlns:xsi="http://www.w3.org/2001/XMLSchema-instance" xsi:noNamespaceSchemaLocation="http://sumo.dlr.de/xsd/sumoConfiguration.xsd">

    <input>
        <net-file value="MainFile/MainFile.net.xml"/>
        <route-files value="MainFile/MainFile.rou.xml"/>
        <additional-files value="MainFile/emission_addition.xml"/>
    </input>

    <output>
        <tripinfo-output value="MainFile/../output/test.xml"/>
    </output>

    <time>
        <begin value="0"/>
        <end value="1200"/>
        <step-length value="1"/>
    </time>

    <processing>
        <lanechange.duration value="3"/>
    </processing>

    <traci_server>
        <remote-port value="49529"/>
    </traci_server>

    <gui_only>
        <start value="true"/>
        <tracker-interval value="1"/>
    </gui_only>

</configuration>
